LTspice 24.1.10 for Windows
Circuit: C:\Users\annab\Sandbox\pcb\vcu\filters.net
Start Time: Wed Mar  4 22:32:35 2026
solver = Normal
Maximum thread count: 8
tnom = 27
temp = 27
method = trap
Direct Newton iteration for .op point succeeded.
Total elapsed time: 0.311 seconds.

Files loaded:
C:\Users\annab\Sandbox\pcb\vcu\filters.net
C:\Users\annab\AppData\Local\LTspice\lib\sub\ADI1.lib
C:\Users\annab\AppData\Local\LTspice\lib\sub\MAX74821.sub

