LTspice 24.1.10 for Windows
Circuit: C:\Users\annab\Sandbox\pcb\vcu\filters.net
Start Time: Wed Dec 10 02:04:16 2025
solver = Normal
Maximum thread count: 8
tnom = 27
temp = 27
method = trap
Direct Newton iteration for .op point succeeded.
Total elapsed time: 0.325 seconds.

Files loaded:
C:\Users\annab\Sandbox\pcb\vcu\filters.net
C:\Users\annab\AppData\Local\LTspice\lib\sub\MAX74821.sub

