LTspice 24.1.10 for Windows
Circuit: C:\Users\annab\Sandbox\pcb\vcu\filters.net
Start Time: Sun Dec 21 14:20:40 2025
solver = Normal
Maximum thread count: 8
tnom = 27
temp = 27
method = trap
Singular matrix:  Check node nc_03
   Iteration No. 22
Direct Newton iteration failed to find .op point.  (Use ".option noopiter" to skip.)
Starting Gmin stepping
Gmin = 10
Gmin = 1.07374
Gmin = 0.115292
Gmin = 0.0123794
Gmin = 0.00132923
Gmin = 0.000142725
Gmin = 1.5325e-05
vernier = 0.5
Gmin = 2.5711e-06
vernier = 0.25
vernier = 0.125
vernier = 0.0625
vernier = 0.03125
vernier = 0.015625
vernier = 0.0078125
vernier = 0.00390625
vernier = 0.00195312
vernier = 0.000976562
vernier = 0.000488281
Gmin = 2.5711e-06
Singular matrix:  Check node nc_03
   Iteration No. 4
Gmin = 0
Singular matrix:  Check node nc_03
   Iteration No. 1
Gmin stepping failed

Starting source stepping with srcstepmethod=0
Source Step = 3.0303%
Source Step = 33.3333%
Source Step = 63.6364%
Source Step = 66.8561%
Source Step = 68.75%
Source Step = 70.6439%
Source Step = 72.5379%
Source Step = 74.4318%
vernier = 0.09375
Source Step = 76.7045%
Source Step = 79.5455%
Source Step = 82.3864%
Source Step = 85.2273%
Source Step = 88.0682%
vernier = 0.140625
Source Step = 91.3352%
Source Step = 95.5966%
Source Step = 99.858%
Source Step = 99.9245%
Source Step = 99.9911%
Source Step = 100%
Source Step = 100%
Source Step = 100%
Source Step = 100%
Source Step = 100%
Source Step = 100%
Source Step = 100%
Source Step = 100%
Source stepping succeeded in finding the operating point.

Total elapsed time: 10.127 seconds.

Files loaded:
C:\Users\annab\Sandbox\pcb\vcu\filters.net
C:\Users\annab\AppData\Local\LTspice\lib\sub\ADI1.lib
C:\Users\annab\AppData\Local\LTspice\lib\sub\MAX74821.sub

