
**** 02/07/25 12:55:27 **** PSpice 23.1.0 (30 January 2024) *** ID# 0 ********

 ** Profile: "SCHEMATIC1-Steady State"  [ e:\cloud\onedrive - university of southampton\sufst\pcb\tsal-led\sim\pspice\tsal-led-driver


 ****     CIRCUIT DESCRIPTION


******************************************************************************




** Creating circuit file "Steady State.cir" 
** WARNING: THIS AUTOMATICALLY GENERATED FILE MAY BE OVERWRITTEN BY SUBSEQUENT SIMULATIONS

*Libraries: 
* Profile Libraries :
* Local Libraries :
* From [PSPICE NETLIST] section of C:\cds_spb_home\cdssetup\OrCAD_PSpiceTIPSpice_Install\23.1.0\PSpice.ini file:
.lib "nom_pspti.lib" 
.lib "nom.lib" 

*Analysis directives: 
.TRAN  0 20 0 0.001 
.OPTIONS ADVCONV
.OPTIONS FILEMODELSEARCH
.PROBE64 V(alias(*)) I(alias(*)) W(alias(*)) D(alias(*)) NOISE(alias(*)) 
.INC "..\SCHEMATIC1.net" 



**** INCLUDING SCHEMATIC1.net ****
* source TSAL-LED-DRIVER
X_U1         0 N01165 N00147 N04232 N00197 N05566 0 0 N00197 N000844 N00147
+  N00147 LMR33620C_TRANS PARAMS: MODE=0 FASTSS=0
C_C1         0 N000844  1u  TC=0,0 
C_C2         N00197 N01165  100n  TC=0,0 
C_C3         0 N00147  22u  TC=0,0 
C_C4         0 N00147  220n  TC=0,0 
V_V1         N00147 0 12
L_L1         N00197 N01696  1.2u  
C_C5         0 N01696  22u  TC=0,0 
C_C6         0 N01696  22u  TC=0,0 
C_C7         0 N01696  22u  TC=0,0 
C_C8         0 N01696  22u  TC=0,0 
X_D1         N01696 N02553 POWER_DIODE_P PARAMS: I_REV_LEAK=1E-5
+  CT_ZERO_VOLTS=300PF V_BR=600 VJ_KNEE=2.6 VJ_SPEC=3.8 IF_SPEC=6
R_RS1         0 N02553  2m TC=0,0 
X_U2         N02553 N04289 N03412 0 N04277 LM7321
R_R1         N03412 N00147  10k TC=0,0 
R_R2         0 N03412  5k TC=0,0 
R_R3         0 N04289  10k TC=0,0 
R_R4         N04277 N04289  20k TC=0,0 
R_R5         0 N04277  100k TC=0,0 
R_R6         N01696 N04232  200k TC=0,0 
R_R7         N04232 0  68k TC=0,0 
C_C9         N03412 N00147  100n  TC=0,0 
C_C10         0 N03412  100n  TC=0,0 
R_R8         N05566 0  100k TC=0,0 

**** RESUMING "Steady State.cir" ****
.END

**** 02/07/25 12:55:27 **** PSpice 23.1.0 (30 January 2024) *** ID# 0 ********

 ** Profile: "SCHEMATIC1-Steady State"  [ e:\cloud\onedrive - university of southampton\sufst\pcb\tsal-led\sim\pspice\tsal-led-driver


 ****     Diode MODEL PARAMETERS


******************************************************************************




               X_D1.D1exp      X_U2.DD         X_U2.DVN        X_U2.DIN        
          IS   10.000000E-06   10.000000E-15   10.000000E-15   10.000000E-15 
          BV  600                                                            
          RS     .2                                                          
         CJO  300.000000E-12                                                 
          KF                                    2.500000E-15    1.000000E-15 


               D_D             D_D1            D_D2            D_body          
          IS    1.000000E-15    1.000000E-15    1.000000E-15    1.000000E-15 
           N    1.000000E-03     .1              .01             .6          
          RS     .05             .5              .05             .05         
          TT   10.000000E-12   10.000000E-12   10.000000E-12   10.000000E-12 


               X_U1.X_U3_U677.d_d1 
          IS    1.000000E-15 
           N     .1          
          RS     .05         
          TT   10.000000E-12 


               X_U1.X_U6_U677.d_d1 
          IS    1.000000E-15 
           N     .1          
          RS     .05         
          TT   10.000000E-12 


**** 02/07/25 12:55:27 **** PSpice 23.1.0 (30 January 2024) *** ID# 0 ********

 ** Profile: "SCHEMATIC1-Steady State"  [ e:\cloud\onedrive - university of southampton\sufst\pcb\tsal-led\sim\pspice\tsal-led-driver


 ****     BJT MODEL PARAMETERS


******************************************************************************




               X_U2.QON        X_U2.QOP        X_U2.QPX        X_U2.QIN        
               NPN             PNP             PNP             NPN             
       LEVEL    1               1               1               1            
          IS  100.000000E-15  100.000000E-15   10.000000E-15  100.000000E-18 
          BF  100             100             200               3.200000E+03 
          NF    1               1               1               1            
          BR    1               1               1               1            
          NR    1               1               1               1            
         ISS    0               0               0               0            
          RE    0               0               0               0            
          RC    1               1               0               0            
         CJE    0               0               0               0            
         VJE     .75             .75             .75             .75         
         CJC    0               0               0               0            
         VJC     .75             .75             .75             .75         
         MJC     .33             .33             .33             .33         
        XCJC    1               1               1               1            
         CJS    0               0               0               0            
         VJS     .75             .75             .75             .75         
          KF    0               0               0               0            
          AF    1               1               1               1            
          CN    2.42            2.2             2.2             2.42         
           D     .87             .52             .52             .87         


               X_U2.QIP        X_U2.QLN        X_U2.QLP        
               PNP             NPN             PNP             
       LEVEL    1               1               1            
          IS  100.000000E-18  100.000000E-18  100.000000E-18 
          BF    1.350000E+03  100             100            
          NF    1               1               1            
          BR    1               1               1            
          NR    1               1               1            
         ISS    0               0               0            
          RE    0               0               0            
          RC    0               0               0            
         CJE    0               0               0            
         VJE     .75             .75             .75         
         CJC    0               0               0            
         VJC     .75             .75             .75         
         MJC     .33             .33             .33         
        XCJC    1               1               1            
         CJS    0               0               0            
         VJS     .75             .75             .75         
          KF    0               0               0            
          AF    1               1               1            
          CN    2.2             2.42            2.2          
           D     .52             .87             .52         


**** 02/07/25 12:55:27 **** PSpice 23.1.0 (30 January 2024) *** ID# 0 ********

 ** Profile: "SCHEMATIC1-Steady State"  [ e:\cloud\onedrive - university of southampton\sufst\pcb\tsal-led\sim\pspice\tsal-led-driver


 ****     Voltage Controlled Switch MODEL PARAMETERS


******************************************************************************




               X_U1.X_U1_S2._U1_S2 
         RON     .1          
        ROFF    1.000000E+09 
         VON     .75         
        VOFF     .25         


               X_U1.X_U5_U153.s1 
         RON    1            
        ROFF    1.000000E+09 
         VON     .75         
        VOFF     .25         


               X_U1.X_U5_S4._U5_S4 
         RON    1.000000E-03 
        ROFF    1.000000E+06 
         VON     .8          
        VOFF     .25         


               X_U1.X_U5_S3._U5_S3 
         RON    1            
        ROFF  100.000000E+09 
         VON     .75         
        VOFF     .25         


               X_U1.X_U10_S19._U10_S19 
         RON   35            
        ROFF  100.000000E+06 
         VON     .8          
        VOFF     .2          


               X_U1.X_U3_S30._U3_S30 
         RON    1.000000E-03 
        ROFF    1.000000E+09 
         VON     .75         
        VOFF     .25         


               X_U1.X_U3_S26._U3_S26 
         RON    1.000000E-03 
        ROFF    1.000000E+09 
         VON     .8          
        VOFF     .2          


               X_U1.X_U3_S29._U3_S29 
         RON     .2          
        ROFF    1.000000E+09 
         VON     .8          
        VOFF     .2          


               X_U1.X_U3_S28._U3_S28 
         RON     .2          
        ROFF    5.000000E+09 
         VON     .75         
        VOFF     .25         


               X_U1.X_U6_S8._U6_S8 
         RON   10.000000E+03 
        ROFF    2.000000E+09 
         VON     .75         
        VOFF     .25         


               X_U1.X_U6_S7._U6_S7 
         RON   10.000000E+03 
        ROFF    2.000000E+09 
         VON     .75         
        VOFF     .25         


               X_U1.X_U6_S1._U6_S1 
         RON    1            
        ROFF    1.000000E+06 
         VON     .8          
        VOFF     .2          


               X_U1.X_U2_S1._U2_S1 
         RON    3.000000E+03 
        ROFF    1.000000E+09 
         VON     .5          
        VOFF     .2          


               X_U1.X_U4_S2._U4_S2 
         RON     .066        
        ROFF    1.000000E+09 
         VON     .5          
        VOFF     .2          


               X_U1.X_U4_S3._U4_S3 
         RON     .1          
        ROFF    1.000000E+09 
         VON     .8          
        VOFF     .2          


               X_U1.X_U4_S1._U4_S1 
         RON     .095        
        ROFF    1.000000E+09 
         VON     .5          
        VOFF     .2          


**** 02/07/25 12:55:27 **** PSpice 23.1.0 (30 January 2024) *** ID# 0 ********

 ** Profile: "SCHEMATIC1-Steady State"  [ e:\cloud\onedrive - university of southampton\sufst\pcb\tsal-led\sim\pspice\tsal-led-driver


 ****     INITIAL TRANSIENT SOLUTION       TEMPERATURE =   27.000 DEG C


******************************************************************************



 NODE   VOLTAGE     NODE   VOLTAGE     NODE   VOLTAGE     NODE   VOLTAGE


(N00147)   12.0000 (N00197)    2.2053 (N01165)    5.0000 (N01696)    2.2053     

(N02553)-16.44E-09 (N03412)    -.0209 (N04232)     .5596 (N04277)    -.0104     

(N04289)    -.0035 (N05566)    0.0000 (X_U2.6)     .4130 (X_U2.7)-289.4E-06     

(X_U2.8)    0.0000 (X_U2.9)-289.4E-06 (N000844)    5.0000                       

(X_U2.10)    -.0205                   (X_U2.11)    -.0205                       

(X_U2.12)    -.0209                   (X_U2.13)    -.0209                       

(X_U2.14)-79.29E-06                   (X_U2.15)    -.0105                       

(X_U2.16)    -.0105                   (X_U2.17)    -.0212                       

(X_U2.18) 243.0E-06                   (X_U2.19)    -.0104                       

(X_U2.20)    -.0105                   (X_U2.21)    -.0199                       

(X_U2.22)    -.0010                   (X_U2.23)    -.5541                       

(X_U2.24)    -.5448                   (X_U2.25)     .5332                       

(X_U2.26)     .5239                   (X_U2.27)    -.0105                       

(X_U2.28)    -.0104                   (X_U2.29)    -.4340                       

(X_U2.30)    -.0106                   (X_U2.31)    -.0103                       

(X_U2.32)    -.0105                   (X_U2.33)     .2791                       

(X_U2.34)     .2791                   (X_U2.35)    -.0065                       

(X_U2.36)     .0043                   (X_U2.37)     .5332                       

(X_U2.38)     .5333                   (X_U2.39)    -.5541                       

(X_U2.40)    -.5542                   (X_U2.41)    1.0000                       

(X_U2.42) 99.39E-06                   (X_U2.43)    -.0033                       

(X_U2.44)     .0559                   (X_U2.45)    -.0035                       

(X_U2.46)     .0559                   (X_U2.47)     .0559                       

(X_U2.48)    -.3345                   (X_U2.49)    -.3345                       

(X_U2.50)    -.3000                   (X_U2.51)    -.3136                       

(X_U2.52)    -.3000                   (X_U2.53)    -.0027                       

(X_U2.54)    -.3136                   (X_U2.55)    -.3136                       

(X_U2.56)    -.8237                   (X_U2.57)   -1.0179                       

(X_U2.58)    -.3166                   (X_U2.59)    -.3136                       

(X_U2.60)-736.2E-09                   (X_U2.61)-736.4E-09                       

(X_U2.62)     .2791                   (X_U2.63)    -.3000                       

(X_U2.64)   -1.0209                   (X_U2.65)    -.0035                       

(X_U2.66)     .5955                   (X_U2.67)     .5955                       

(X_U2.68)     .5955                   (X_U2.69)     .5955                       

(X_U2.70)    -.0035                   (X_U2.71)    -.0209                       

(X_U2.72)    0.0000                   (X_U2.73)    -.0017                       

(X_U2.74)    -.0017                   (X_U2.75)-2.094E-06                       

(X_U2.76)    0.0000                   (X_U2.77)-17.22E-06                       

(X_U2.78)-73.26E-09                   (X_U2.79)    -.0035                       

(X_U2.80)-736.2E-09                   (X_U2.81)-73.26E-09                       

(X_U2.82)-848.0E-09                   (X_U2.83)    -.0105                       

(X_U2.84)    -.0105                   (X_U2.85)     .6551                       

(X_U2.86)    -.5750                   (X_U2.87)    1.0062                       

(X_U2.88)    0.0000                   (X_U2.89)    0.0000                       

(X_U2.90)     .6551                   (X_U1.CLK)    0.0000                      

(X_U1.FBI)     .5596                  (X_U1.PH1)    0.0000                      

(X_U1.PH2)    1.0000                  (X_U1.UVP)    0.0000                      

(X_D1.np_1)    -.0447                 (X_U1.COMP)     .1595                     

(X_U1.CONT)    0.0000                 (X_U1.FFWD)    0.0000                     

(X_U1.HDRV)    0.0000                 (X_U1.LDRV)    0.0000                     

(X_U1.PGND) 1.104E-12                 (X_U1.RAMP) 13.86E-09                     

(X_U1.SDWN)    0.0000                 (X_U1.VREF) 2.000E-09                     

(X_U1.RMPOK)    0.0000                (X_U1.U1_5V)    5.0000                    

(X_U1.U3_S1)    1.0000                (X_U1.U6_V5)    5.0000                    

(X_U1.EN_INT)   12.0000               (X_U1.HDRV_N)    1.0000                   

(X_U1.HICCUP)    0.0000               (X_U1.ISLOPE) 13.86E-09                   

(X_U1.U3_VDC)   10.0000               (X_U1.U4_VDC)    3.3000                   

(X_U1.U4_ZCD)    1.0000               (X_U1.U6_SET)    0.0000                   

(X_U1.H_BLNCK)    0.0000              (X_U1.SS_DONE)    0.0000                  

(X_U1.TOFFBAR)    0.0000              (X_U1.U4_SWIN)    2.2053                  

(X_U1.COMP_OCP)    0.0000             (X_U1.PGOODDEL)    0.0000                 

(X_U1.PGOOD_EN)    1.0000             (X_U1.U1_VCOMP)     .8571                 

(X_U1.U2_DISCH)    0.0000             (X_U1.U4_VY_OK)    1.0000                 

(X_U1.U5_H_END)    0.0000             (X_U1.U6_GT_PK)    0.0000                 

(X_U1.U6_HS_ON)    0.0000             (X_U1.U6_PH1_1)    0.0000                 

(X_U1.U7_EN_TH)    1.0000             (X_U1.FPWM_GATE)    0.0000                

(X_U1.N16744338)    1.0000            (X_U1.N16883153)    1.0000                

(X_U1.N16892964)    1.0000            (X_U1.U10_UVP_N)    1.0000                

(X_U1.U2_SS_INT) 2.000E-09            (X_U1.U3_CLK_RT)    0.0000                

(X_U1.U4_LDRV_N)    1.0000            (X_U1.U4_VY_CMD)    0.0000                

(X_U1.U6_HSRAMP) 1.038E-06            (X_U1.U6_HS_CMD)   11.9380                

(X_U1.U6_PH1_1B)    1.0000            (X_U1.U4_CONTBAR)    1.0000               

(X_U1.U4_L_BLNCK)    1.0000           (X_U1.U6_PREBIAS)    1.0000               

(X_U1.U6_VSLOPE2) 13.86E-09           (X_U1.U7_VCCUVLO)    1.0000               

(X_U1.U7_VINUVLO)    1.0000           (X_U1.U3_RMPOKBAR)    1.0000              

(X_U1.U4_HDRV_INT)    0.0000          (X_U1.U4_LDRV_INT)    0.0000              

(X_U1.U4_LS_READY)    1.0000          (X_U1.U5_HICCUP_N)    1.0000              

(X_U1.U6_VOFFSET1) 9.900E-09          (X_U1.X_U7_U614.1)    1.0000              

(X_U1.X_U7_U615.1)    1.0000          (X_U1.X_U7_U623.1)    1.0000              

(X_U1.TOFF_TIMEOUT)    1.0000         (X_U1.U10_HICC_RES)    0.0000             

(X_U1.U10_PGOOD_OV)    0.0000         (X_U1.U10_PGOOD_UV)    1.0000             

(X_U1.U1_N16782512)     .7714         (X_U1.U1_N16782515)     .1595             

(X_U1.U1_N16782673) 1.143E-09         (X_U1.U1_N16782699)    1.0000             

(X_U1.U1_N16782831)    1.3800         (X_U1.U1_N16786757)     .5596             

(X_U1.U1_N16786776)     .5596         (X_U1.U1_N16787179) 6.600E-09             

(X_U1.U1_N16789339)     .8577         (X_U1.U1_N16790867)-593.3E-06             

(X_U1.U1_N16790903)    0.0000         (X_U1.U1_N16790907)    0.0000             

(X_U1.U1_N16790934)    0.0000         (X_U1.U1_N16791039)     .9000             

(X_U1.U1_N16791053)-159.3E-18         (X_U1.U1_N16791157)    1.0000             

(X_U1.U1_N16798814) 33.57E-06         (X_U1.U2_N16645820)    1.2000             

(X_U1.U2_N16727106)     .9500         (X_U1.U2_N16736482)    1.1000             

(X_U1.U2_N16741787) 2.000E-09         (X_U1.U3_DISCHARGE)    0.0000             

(X_U1.U3_N16802327)    1.0000         (X_U1.U3_N16802335)    1.0000             

(X_U1.U3_N16802340) 1.289E-06         (X_U1.U3_N16802392)    1.0000             

(X_U1.U3_N16802453)    1.0000         (X_U1.U3_N16802462)    1.0000             

(X_U1.U3_N16802467) 20.79E-09         (X_U1.U3_N16806508)    0.0000             

(X_U1.U3_N16835917)    1.0000         (X_U1.U3_N16835924)    0.0000             

(X_U1.U3_N16836023)    0.0000         (X_U1.U3_N16845023)    1.0000             

(X_U1.U3_RAMP_COMP)    0.0000         (X_U1.U4_LDRV_INT1)    0.0000             

(X_U1.U4_N16819744)    1.0000         (X_U1.U4_N16819764)    1.0000             

(X_U1.U4_N16819965)    1.0000         (X_U1.U4_N16820237)    0.0000             

(X_U1.U4_N16822220)   12.0000         (X_U1.U4_N16825000)-535.7E-06             

(X_U1.U4_N16825002)    0.0000         (X_U1.U4_N16825004)    0.0000             

(X_U1.U4_N16825022)    0.0000         (X_U1.U4_N16835331)    2.4553             

(X_U1.U4_N16838201)    1.0000         (X_U1.U4_N16840544)    1.0000             

(X_U1.U4_N16840587)    1.0000         (X_U1.U4_N16840592)    3.3613             

(X_U1.U4_N16892999)    0.0000         (X_U1.U4_N16893079)    0.0000             

(X_U1.U4_N16893089)    0.0000         (X_U1.U4_N16893159)    0.0000             

(X_U1.U4_N16894565)    0.0000         (X_U1.U4_N16894591)    0.0000             

(X_U1.U4_N16894615)    0.0000         (X_U1.U4_N16894652)    0.0000             

(X_U1.U4_ZCDTHRESH)    0.0000         (X_U1.U4_ZX_NEG_VY)    1.0000             

(X_U1.U5_N16777837)    1.0000         (X_U1.U5_N16777841)    0.0000             

(X_U1.U5_N16777867)    0.0000         (X_U1.U5_N16777880)    0.0000             

(X_U1.U5_N16777884)  128.0000         (X_U1.U5_N16777926)    0.0000             

(X_U1.U5_N16777933)    1.0000         (X_U1.U5_N16777947)    0.0000             

(X_U1.U5_N16777952)    0.0000         (X_U1.U5_N16778000)    0.0000             

(X_U1.U5_N16778004)    1.0000         (X_U1.U5_N16792752)    0.0000             

(X_U1.U5_N16793743)    0.0000         (X_U1.U5_N16815454)    0.0000             

(X_U1.U5_N16864724)    1.0000         (X_U1.U5_N16873139)    1.0000             

(X_U1.U5_N16873419)    0.0000         (X_U1.U5_N16875107)    0.0000             

(X_U1.U5_U2_N00140)    0.0000         (X_U1.U5_U2_N00220)    1.0000             

(X_U1.U5_U2_N00780) 8.397E-30         (X_U1.U5_U2_N02470)    0.0000             

(X_U1.U5_U2_N03610)    1.0000         (X_U1.U6_N16744485)    0.0000             

(X_U1.U6_N16756335)    1.0000         (X_U1.U6_N16756364)    1.0000             

(X_U1.U6_N16757793)    0.0000         (X_U1.U6_N16758010)    1.0000             

(X_U1.U6_N16820315)    0.0000         (X_U1.U6_N16831525)    0.0000             

(X_U1.U6_N16831569)    0.0000         (X_U1.U6_N16837101) 13.44E-06             

(X_U1.U6_N16839772)    0.0000         (X_U1.U6_N16841488)    0.0000             

(X_U1.U6_N16877786) 3.495E-30         (X_U1.U6_N16877871) 9.900E-09             

(X_U1.U6_N16877890)    1.0000         (X_U1.U6_N16877905)    1.0000             

(X_U1.U6_N16877993) 9.900E-09         (X_U1.U6_N16878833)-210.9E-30             

(X_U1.U6_N16878836)    0.0000         (X_U1.U6_N16878860)    0.0000             

(X_U1.U6_N16878949)    1.0000         (X_U1.U6_N16879057)    0.0000             

(X_U1.U7_N16735008)     .0200         (X_U1.U7_N16735086)    1.2800             

(X_U1.U7_N16735276)     .2000         (X_U1.U7_N16735320)    2.4000             

(X_U1.U7_N16748115)    2.8000         (X_U1.U7_N16748127)     .2000             

(X_U1.U7_N16748380)    1.0000         (X_U1.U7_N16748705)    1.0000             

(X_U1.U7_N16749084)    1.0000         (X_U1.U7_N16749382)    1.0000             

(X_U1.U7_N16749476)    1.0000         (X_U1.X_U10_U613.1)    1.0000             

(X_U1.X_U10_U614.1)    0.0000         (X_U1.X_U10_U619.1)    0.0000             

(X_U1.X_U2_U3.YINT)    0.0000         (X_U1.X_U2_U4.Yint)    0.0000             

(X_U1.X_U2_U5.Yint)    0.0000         (X_U1.X_U5_U153.ch)    0.0000             

(X_U1.X_U5_U30.MY5)    1.0000         (X_U1.X_U5_U30.Qbr)    1.0000             

(X_U1.X_U5_U30.Qqq) 2.002E-15         (X_U1.U10_N16625533)     .0200            

(X_U1.U10_N16626981)     .0200        (X_U1.U10_N16627165)    1.0700            

(X_U1.U10_N16787180)     .9200        (X_U1.U10_N16791609)    1.0000            

(X_U1.U10_N16817256)     .0200        (X_U1.U10_N16817296)     .3900            

(X_U1.U10_N16818724)    1.0000        (X_U1.U10_N16818942)    0.0000            

(X_U1.U10_N16818947)    0.0000        (X_U1.U10_N16819234)    0.0000            

(X_U1.U10_N16824943)    1.0000        (X_U1.U10_N16825054)    0.0000            

(X_U1.U10_UVP_LATCH)    0.0000        (X_U1.U4_N168354081)   12.2500            

(X_U1.U5_N168831152)    0.0000        (X_U1.U6_HS_TIMEOUT)    0.0000            

(X_U1.U6_N168315102) 13.44E-06        (X_U1.X_U3_U677.my5)    1.0000            

(X_U1.X_U3_U677.qbr)    1.0000        (X_U1.X_U3_U677.qqq) 2.002E-15            

(X_U1.X_U4_U12.YINT)    0.0000        (X_U1.X_U4_U14.YINT)    0.0000            

(X_U1.X_U4_U15.YINT)    0.0000        (X_U1.X_U4_U16.YINT)    1.0000            

(X_U1.X_U4_U17.YINT)    0.0000        (X_U1.X_U4_U680.MY5)    1.0000            

(X_U1.X_U4_U680.Qbr)    1.0000        (X_U1.X_U4_U680.Qqq)     .0100            

(X_U1.X_U4_U681.MY5)    1.0000        (X_U1.X_U4_U681.Qbr)    1.0000            

(X_U1.X_U4_U681.Qqq)    -.0100        (X_U1.X_U5_U30.Qint) 2.002E-15            

(X_U1.X_U5_U628.MY5)    1.0000        (X_U1.X_U5_U628.Qbr)    1.0000            

(X_U1.X_U5_U628.Qqq) 2.002E-15        (X_U1.X_U6_U629.MY5)    1.0000            

(X_U1.X_U6_U629.Qbr)    1.0000        (X_U1.X_U6_U629.Qqq) 2.002E-15            

(X_U1.X_U6_U677.my5)    1.0000        (X_U1.X_U6_U677.qbr)    1.0000            

(X_U1.X_U6_U677.qqq) 2.002E-15        (X_U1.X_U6_U834.MY5)    1.0000            

(X_U1.X_U6_U834.Qbr)    1.0000        (X_U1.X_U6_U834.Qqq) 2.002E-15            

(X_U1.U6_FPWM_GATE_B)    1.0000       (X_U1.U6_HS_COMP_OUT)    1.0000           

(X_U1.X_U10_U624.MY5)    1.0000       (X_U1.X_U10_U624.Qbr)    1.0000           

(X_U1.X_U10_U624.Qqq) 2.002E-15       (X_U1.X_U1_U678.YINT)    1.0000           

(X_U1.X_U1_U679.Yint)    0.0000       (X_U1.X_U1_U681.Yint)    0.0000           

(X_U1.X_U3_U131.Yint)    0.0000       (X_U1.X_U3_U137.YINT)    0.0000           

(X_U1.X_U3_U145.YINT)    0.0000       (X_U1.X_U3_U146.YINT)    1.0000           

(X_U1.X_U3_U677.qint) 2.002E-15       (X_U1.X_U3_U679.YINT)    0.0000           

(X_U1.X_U3_U680.YINT)    0.0000       (X_U1.X_U3_U684.YINT)    0.0000           

(X_U1.X_U3_U685.YINT)    0.0000       (X_U1.X_U4_U10.YINT1)    0.0000           

(X_U1.X_U4_U10.YINT2)    0.0000       (X_U1.X_U4_U10.YINT3)    0.0000           

(X_U1.X_U4_U13.YINT1)    0.0000       (X_U1.X_U4_U13.YINT2)    0.0000           

(X_U1.X_U4_U13.YINT3)    0.0000       (X_U1.X_U4_U610.YINT)    0.0000           

(X_U1.X_U4_U611.YINT)    1.0000       (X_U1.X_U4_U612.YINT)    0.0000           

(X_U1.X_U4_U615.YINT)    1.0000       (X_U1.X_U4_U616.YINT)    0.0000           

(X_U1.X_U4_U617.Yint)    1.0000       (X_U1.X_U4_U618.YINT)    0.0000           

(X_U1.X_U4_U650.YINT)    1.0000       (X_U1.X_U4_U651.YINT)    1.0000           

(X_U1.X_U4_U652.YINT)    0.0000       (X_U1.X_U4_U661.YINT)    1.0000           

(X_U1.X_U4_U680.Qint)     .0100       (X_U1.X_U4_U681.Qint)    -.0100           

(X_U1.X_U4_U683.YINT)    1.0000       (X_U1.X_U4_U684.Yint)    1.0000           

(X_U1.X_U4_U686.Yint)    1.0000       (X_U1.X_U5_U153.meas)    0.0000           

(X_U1.X_U5_U30.MYVSS)    0.0000       (X_U1.X_U5_U30.Qqqd1)    0.0000           

(X_U1.X_U5_U608.YINT)    0.0000       (X_U1.X_U5_U609.Yint)    0.0000           

(X_U1.X_U5_U612.Yint)    0.0000       (X_U1.X_U5_U626.YINT)    0.0000           

(X_U1.X_U5_U627.YINT)    1.0000       (X_U1.X_U5_U628.Qint) 2.002E-15           

(X_U1.X_U5_U629.YINT)    0.0000       (X_U1.X_U6_U612.Yint)    0.0000           

(X_U1.X_U6_U629.Qint) 2.002E-15       (X_U1.X_U6_U677.qint) 2.002E-15           

(X_U1.X_U6_U825.YINT)    0.0000       (X_U1.X_U6_U827.YINT)    0.0000           

(X_U1.X_U6_U828.YINT)    1.0000       (X_U1.X_U6_U829.YINT)    1.0000           

(X_U1.X_U6_U834.Qint) 2.002E-15       (X_U1.X_U6_U835.Yint)    1.0000           

(X_U1.X_U6_U836.YINT)    0.0000       (X_U1.X_U6_U838.YINT)    1.0000           

(X_U1.X_U6_U839.YINT)    0.0000       (X_U1.X_U6_U841.YINT)    0.0000           

(X_U1.X_U6_U842.Yint)    0.0000       (X_U1.X_U6_U844.YINT)    0.0000           

(X_U1.X_U6_U846.YINT)    1.0000       (X_U1.X_U6_U848.YINT)    1.0000           

(X_U1.X_U7_U614.INM1)  -10.7200       (X_U1.X_U7_U614.INP1)    0.0000           

(X_U1.X_U7_U614.INP2)     .0200       (X_U1.X_U7_U615.INM1)   -2.6000           

(X_U1.X_U7_U615.INP1)    0.0000       (X_U1.X_U7_U615.INP2)     .2000           

(X_U1.X_U7_U623.INM1)   -9.2000       (X_U1.X_U7_U623.INP1)    0.0000           

(X_U1.X_U7_U623.INP2)     .2000       (X_U1.X_U7_U625.YINT)    1.0000           

(X_U1.X_U7_U626.YINT)    0.0000       (X_U1.X_U7_U627.YINT)    1.0000           

(X_U1.X_U10_U613.INM1)    -.3604      (X_U1.X_U10_U613.INP1)    0.0000          

(X_U1.X_U10_U613.INP2)     .0200      (X_U1.X_U10_U614.INM1)     .5104          

(X_U1.X_U10_U614.INP1)    0.0000      (X_U1.X_U10_U614.INP2)    0.0000          

(X_U1.X_U10_U617.YINT)    1.0000      (X_U1.X_U10_U618.YINT)    1.0000          

(X_U1.X_U10_U619.INM1)     .1696      (X_U1.X_U10_U619.INP1)    0.0000          

(X_U1.X_U10_U619.INP2)    0.0000      (X_U1.X_U10_U621.YINT)    0.0000          

(X_U1.X_U10_U622.YINT)    0.0000      (X_U1.X_U10_U624.Qint) 2.002E-15          

(X_U1.X_U10_U625.YINT)    0.0000      (X_U1.X_U3_U677.myvss)    0.0000          

(X_U1.X_U3_U677.qqqd1)    0.0000      (X_U1.X_U4_U680.MYVSS)    0.0000          

(X_U1.X_U4_U680.Qqqd1)    0.0000      (X_U1.X_U4_U681.MYVSS)    0.0000          

(X_U1.X_U4_U681.Qqqd1)    0.0000      (X_U1.X_U4_U687.YINT1)    1.0000          

(X_U1.X_U4_U687.YINT2)    1.0000      (X_U1.X_U4_U687.YINT3)    0.0000          

(X_U1.X_U5_U153.reset)    1.0000      (X_U1.X_U5_U607.YINT1)    0.0000          

(X_U1.X_U5_U607.YINT2)    0.0000      (X_U1.X_U5_U607.YINT3)    1.0000          

(X_U1.X_U5_U610.YINT1)    0.0000      (X_U1.X_U5_U610.YINT2)    0.0000          

(X_U1.X_U5_U610.YINT3)    1.0000      (X_U1.X_U5_U611.YINT1)    1.0000          

(X_U1.X_U5_U611.YINT2)    1.0000      (X_U1.X_U5_U611.YINT3)    0.0000          

(X_U1.X_U5_U628.MYVSS)    0.0000      (X_U1.X_U5_U628.Qqqd1)    0.0000          

(X_U1.X_U6_U629.MYVSS)    0.0000      (X_U1.X_U6_U629.Qqqd1)    0.0000          

(X_U1.X_U6_U677.myvss)    0.0000      (X_U1.X_U6_U677.qqqd1)    0.0000          

(X_U1.X_U6_U826.YINT1)    0.0000      (X_U1.X_U6_U826.YINT2)    0.0000          

(X_U1.X_U6_U826.YINT3)    1.0000      (X_U1.X_U6_U834.MYVSS)    0.0000          

(X_U1.X_U6_U834.Qqqd1)    0.0000      (X_U1.X_U6_U840.YINT1)    0.0000          

(X_U1.X_U6_U840.YINT2)    0.0000      (X_U1.X_U6_U840.YINT3)    0.0000          

(X_U1.X_U6_U843.YINT1)    0.0000      (X_U1.X_U6_U843.YINT2)    0.0000          

(X_U1.X_U6_U843.YINT3)    0.0000      (X_U1.X_U10_U624.MYVSS)    0.0000         

(X_U1.X_U10_U624.Qqqd1)    0.0000     (X_U1.X_U3_U677.clkdel)    1.0000         

(X_U1.X_U3_U677.clkint)    0.0000     (X_U1.X_U5_U153.reset2)    1.0000         

(X_U1.X_U5_U30.X3.YINT)    0.0000     (X_U1.X_U6_U677.clkdel)    0.0000         

(X_U1.X_U6_U677.clkint)    0.0000     (X_U1.U1_TOFFTIMERINPUT)-1.577E-09        

(X_U1.X_U3_U677.clkdel1)    1.0000    (X_U1.X_U3_U677.x1.YINT)    1.0000        

(X_U1.X_U3_U677.x2.YINT)    0.0000    (X_U1.X_U4_U680.X3.YINT)    0.0000        

(X_U1.X_U4_U681.X3.YINT)    0.0000    (X_U1.X_U5_U2_U618.YINT)    0.0000        

(X_U1.X_U5_U2_U620.YINT)    0.0000    (X_U1.X_U5_U2_U621.YINT)    1.0000        

(X_U1.X_U5_U628.X3.YINT)    0.0000    (X_U1.X_U6_U629.X3.YINT)    0.0000        

(X_U1.X_U6_U677.clkdel1)    0.0000    (X_U1.X_U6_U677.x1.YINT)    0.0000        

(X_U1.X_U6_U677.x2.YINT)    0.0000    (X_U1.X_U6_U834.X3.YINT)    0.0000        

(X_U1.X_U10_U624.X3.YINT)    0.0000   (X_U1.X_U3_U677.x3.YINT1)    0.0000       

(X_U1.X_U3_U677.x3.YINT2)    0.0000   (X_U1.X_U3_U677.x3.YINT3)    0.0000       

(X_U1.X_U5_U2_U607.YINT1)    0.0000   (X_U1.X_U5_U2_U607.YINT2)    0.0000       

(X_U1.X_U5_U2_U607.YINT3)    1.0000   (X_U1.X_U5_U2_U608.YINT1)    1.0000       

(X_U1.X_U5_U2_U608.YINT2)    1.0000   (X_U1.X_U5_U2_U608.YINT3)    0.0000       

(X_U1.X_U6_U677.x3.YINT1)    0.0000   (X_U1.X_U6_U677.x3.YINT2)    0.0000       

(X_U1.X_U6_U677.x3.YINT3)    0.0000   




    VOLTAGE SOURCE CURRENTS
    NAME         CURRENT

    V_V1        -1.218E-03
    X_U1.V_U7_V9   0.000E+00
    X_U1.V_U7_V7   0.000E+00
    X_U1.V_U7_V13   0.000E+00
    X_U1.V_U7_V14   0.000E+00
    X_U1.V_U7_V6   0.000E+00
    X_U1.V_U7_V8   0.000E+00
    X_U1.V_U1_V16  -3.357E-05
    X_U1.V_U1_V11  -9.150E+00
    X_U1.V_U1_V15   0.000E+00
    X_U1.V_U1_V12   0.000E+00
    X_U1.V_U1_V9  -2.118E-22
    X_U1.V_U1_V14   0.000E+00
    X_U1.V_U5_V5   0.000E+00
    X_U1.V_U5_V4   0.000E+00
    X_U1.V_U5_V2   0.000E+00
    X_U1.V_U10_V6   0.000E+00
    X_U1.V_U10_V2   0.000E+00
    X_U1.V_U10_V3   0.000E+00
    X_U1.V_U10_V7   0.000E+00
    X_U1.V_U10_V1   0.000E+00
    X_U1.V_U10_V4   0.000E+00
    X_U1.V_U3_V53  -1.386E-05
    X_U1.V_U3_V50   0.000E+00
    X_U1.V_U3_V47   0.000E+00
    X_U1.V_U3_V54   0.000E+00
    X_U1.V_U3_V51   0.000E+00
    X_U1.V_U6_V3   0.000E+00
    X_U1.V_U6_V2  -5.188E-04
    X_U1.V_U6_V1   0.000E+00
    X_U1.V_U2_V8   0.000E+00
    X_U1.V_U2_V5   0.000E+00
    X_U1.V_U2_V1  -1.000E-06
    X_U1.V_U4_V10   2.456E-12
    X_U1.V_U4_V7   0.000E+00
    X_U1.V_U4_V13  -3.361E-09
    X_U1.V_U4_V14   9.805E-09
    X_U1.V_U4_V12  -7.937E-05
    X_U1.V_U4_V11   1.005E-11
    X_U1.V_U4_V15   0.000E+00
    X_D1.V_D1   -8.221E-06
    X_U2.V6      2.551E-13
    X_U2.V7      3.877E-14
    X_U2.V4     -3.015E-03
    X_U2.V12    -1.000E-09
    X_U2.V15    -2.765E-14
    X_U2.V17    -5.750E-08
    X_U2.V19     9.939E-12
    X_U2.V21     1.012E-12
    X_U2.V22     5.668E-13
    X_U1.X_U1_F4.VF_U1_F4   1.000E-05
    X_U1.X_U1_H1.VH_U1_H1   3.357E-05
    X_U1.X_U1_F3.VF_U1_F3   1.000E-05
    X_U1.X_U5_U628.V1  -1.001E-12
    X_U1.X_U5_U628.V2   2.776E-27
    X_U1.X_U5_U30.V1  -1.001E-12
    X_U1.X_U5_U30.V2   2.776E-27
    X_U1.X_U10_U624.V1  -1.001E-12
    X_U1.X_U10_U624.V2   2.776E-27
    X_U1.X_U3_U677.v1  -1.001E-12
    X_U1.X_U3_U677.v2   2.776E-27
    X_U1.X_U3_F1.VF_U3_F1   2.772E-05
    X_U1.X_U3_F2.VF_U3_F2   2.772E-05
    X_U1.X_U3_F3.VF_U3_F3   2.772E-05
    X_U1.X_U6_H1.VH_U6_H1   1.344E-05
    X_U1.X_U6_H2.VH_U6_H2   1.344E-05
    X_U1.X_U6_U629.V1  -1.001E-12
    X_U1.X_U6_U629.V2   2.776E-27
    X_U1.X_U6_U834.V1  -1.001E-12
    X_U1.X_U6_U834.V2   2.776E-27
    X_U1.X_U6_U677.v1  -1.001E-12
    X_U1.X_U6_U677.v2   2.776E-27
    X_U1.X_U4_U680.V1  -9.910E-13
    X_U1.X_U4_U680.V2   1.098E-14
    X_U1.X_U4_F3.VF_U4_F3   7.937E-05
    X_U1.X_U4_U681.V1  -1.011E-12
    X_U1.X_U4_U681.V2  -5.677E-14

    TOTAL POWER DISSIPATION   4.58E+01  WATTS



          JOB CONCLUDED

**** 02/07/25 12:55:27 **** PSpice 23.1.0 (30 January 2024) *** ID# 0 ********

 ** Profile: "SCHEMATIC1-Steady State"  [ e:\cloud\onedrive - university of southampton\sufst\pcb\tsal-led\sim\pspice\tsal-led-driver


 ****     JOB STATISTICS SUMMARY


******************************************************************************



  Total job time (using Solver 1)   =       14.80
